VERSION 18
*******************************************************************************
*** TRNSYS input file (deck) generated by TRNLIZARD
*******************************************************************************
*******************************************************************************
*** Control cards
*******************************************************************************
* START, STOP and STEP
CONSTANTS 3
START =0       !Simulation start time
STOP  =8760        !Simulation stop time
STEP  =0.25        !Simulation time step
SIMULATION 	 START	 STOP	 STEP	! Start time	End time	Time step
TOLERANCES 0.0001 0.0001			! Integration	 Convergence
LIMITS 200.0 3000 302				! Max iterations	Max warnings	Trace limit
DFQ 1					        ! TRNSYS numerical integration solver method
WIDTH 72				        ! TRNSYS output file width, number of characters
LIST 					        ! NOLIST statement
								! MAP statement
SOLVER 0 1 1				    ! Solver statement	Minimum relaxation factor	Maximum relaxation factor
NAN_CHECK 0				        ! Nan DEBUG statement
OVERWRITE_CHECK 0			    ! Overwrite DEBUG statement
TIME_REPORT 0			        ! enable time report statement
EQSOLVER 0				        ! EQUATION SOLVER statement
* User defined CONSTANTS 


*------------------------------------------------------------------------------
* EQUATIONS "Azimuth Angles"
* 
EQUATIONS 4
AZEN   = [15,16]      !solar zenith angle
AAZM   = [15,17]      !solar azimuth angle
AHEI   = max(90 - AZEN,0)  !sun height
AZ_T56 = AAZM-(0) 
*$UNIT_NAME Azimuth Angles
*$LAYER Main
*$POSITION 230 31
*$UNIT_NUMBER 1

*------------------------------------------------------------------------------
* Model "Type15-3" (Type 15)
* 
UNIT 15 TYPE 15	 Type15-3
*$UNIT_NAME Type15-3
*$MODEL .\Weather Data Reading and Processing\Standard Format\Energy+ Weather Files (EPW)\Type15-3.tmf
*$POSITION 330 31
*$LAYER Weather - Data Files # 
PARAMETERS 9
3		! 1 File Type
36		! 2 Logical unit
5		! 3 Tilted Surface Radiation Mode
GRDREF		! 4 Ground reflectance - no snow
0.2		! 5 Ground reflectance - snow cover
1		! 6 Number of surfaces
1		! 7 Tracking mode
0.0		! 8 Slope of surface
0		! 9 Azimuth of surface

*** External files
ASSIGN "DEU_BY_Munich-Theresienwiese.TMYx.epw" 36
*|? Weather data file |1000
*-------------------------------------------------------------------------------
* Model "24h mean" (Type 127)
* 
UNIT 27 TYPE 127	 24h mean
*$UNIT_NAME 24h mean
*$MODEL .\Nostand\Type127\TYPE127.tmf
*$POSITION 430 31
*$LAYER Main # 
PARAMETERS 3
0		! 1 start time mean value
24		! 2 stop time mean value
5		! 3 initial value of temperature
INPUTS 1
Tamb		! [equation] input value
*** INITIAL INPUT VALUES
5 
*------------------------------------------------------------------------------
* Model "Type33e-3" (Type 33)
* 
UNIT 33 TYPE 33	 Type33e-3
*$UNIT_NAME Type33e-3
*$MODEL .\Physical Phenomena\Thermodynamic Properties\Psychrometrics\Dry Bulb and Relative Humidity Known\Type33e.tmf
*$POSITION 530 31
*$LAYER Main # 
PARAMETERS 3
2		! 1 Psychrometrics mode
1		! 2 Wet bulb mode
1		! 3 Error mode
INPUTS 3
Tamb		! Environmental:Tamb ->Dry bulb temp.
15,7 		! Type99-2:relative humidity ->Percent relative humidity
pamb_atm		! [unconnected] Pressure
*** INITIAL INPUT VALUES
20 50 1 
*------------------------------------------------------------------------------
* Model "Type69b-2" (Type 69)
* 
UNIT 69 TYPE 69	 Type69b-2
*$UNIT_NAME Type69b-2
*$MODEL .\Physical Phenomena\Sky Temperature\calculate cloudiness factor\Type69b.tmf
*$POSITION 630 31
*$LAYER Main # # 
PARAMETERS 2
0		! 1 mode for cloudiness factor
490.0		! 2 height over sea level
INPUTS 4
Tamb		! Environmental:Tamb ->Ambient temperature
33,8 		! Type33e-3:Dew point temperature. ->Dew point temperature at ambient conditions
15,19 		! Type99-2:beam radiation on horitonzal ->Beam radiation on the horizontal
15,20 		! Type99-2:sky diffuse radiation on horizontal ->Diffuse radiation on the horizontal
*** INITIAL INPUT VALUES
0 0 0 0 
*------------------------------------------------------------------------------
* EQUATIONS "Environmental"
* 
EQUATIONS 37
GRDREF       = 0.2          !ground reflection regarding solar radiation
Rh_amb       = [33,6]       !relative humidity of outside air in %
Abshum_amb   = [33,1]       !absolute humidity of outside air in kg/kg
X_amb        = Abshum_amb * 1000 !absolute humidity of outside air in g/kg
Twb_amb      = [33,2]       !wet bulb temperature of outside air in ?C
Tdp_amb      = [33,8]       !dew point temperature of outside air in ?C
Tamb         = [15,1]   !outside air temperature in ?C
Tfloat       = max( min( 27, (Tamb/3+49/3) ), 25)  !floating temperature in ?C
Tsoil        = 20.0 - 8 * COS(360/365*(TIME/24 - 43)) ! 20.0 - 8 * COS(360/365*(TIME/24 - 43)) !soil temperature used for ground connected surfaces in ?C
Tamb_m24     = [27,1]       !24h mean outside air temperature in ?C
Tamb_g24     = [27,3]       !floating mean outside air temperature in ?C
Tsky         = [69,1]       !sky temperature in ?C
Abshum_earthd= Abshum_amb   !absolute humidity in kg/kg
cpAir        = 1.012        !specific heat of air in kJ/kg/K
cpH2o        = 4.18         !specific heat capacity water kJ/kg/K
cpGlyk       = 3.81         !specific heat capacity water / glycol Antifrogen N 25 % [kg/m?]
VapEnt       = 2454         !water evaporation enthalpie
rhoAir       = 1.204        !density of air in kg/m?
rhoH2O       = 1000         !desity water [kg/m?]
rhoW         = 1000         !desity water [kg/m?]
rhoGlyk      = 1047         !density water / glycol Antifrogen N 25 % [kg/m?]
Zero         = 0
Totarea      = 0     !total area of that space type
DAYTIME      = mod(TIME,24) !time of the day
WINDVEL      = [15,8]   !wind velocity in m/s
WINDDIR      = [15,9]   !wind direction in ?
pamb_abs     = 101325.0     !absolute outside air pressure level
pamb_bar     = pamb_abs / 100000   !barometric outside air pressure level
pamb_atm     = pamb_bar * 0.98692  !atmospheric outside air pressure level
CCONAMB_1    = 0.000656     !outside air concentration of pollutant in kg/kg
CCONAMB_2    = 0 
CCONAMB_3    = 0 
CCONAMB_4    = 0 
CCONAMB_5    = 0
TRNFLOW      = 0     !* NOT(GT(DAYTIME,8)*LT(DAYTIME,20))  !switch to turn TRNFLOW ON/OFF
showonline = 0        !enable or disable to show the online plotter
CO2_amb = 430 !Volppm       !ambient CO2 level for simplified CO2 calculation of one airnode
*$UNIT_NAME Environmental
*$LAYER Main
*$POSITION 730 31
*$UNIT_NUMBER 2
*------------------------------------------------------------------------------
* EQUATIONS "Pre. Def Comfort"
* 
EQUATIONS 6
T15251NAU = max(min((18 + 0.25 * Tamb),26),22) + 2  ! upper temperature limit according to DIN EN 15251 National Appendix category II
T15251NAL = max(min((18 + 0.25 * Tamb),26),22) - 2  ! upper temperature limit according to DIN EN 15251 National Appendix category II
T15251ADIIU = max((18.8 + 0.33 * Tamb_g24 + 3),26)  ! upper temperature limit according to DIN EN 15251 adaptive comfort category II
T15251ADIIL = max((18.8 + 0.33 * Tamb_g24 - 3),20)  ! upper temperature limit according to DIN EN 15251 adaptive comfort category II
T15251ENIIU = 26                                    ! upper temperature limit according to DIN EN 15251 active cooled category II
T15251ENIIL = 20                                    ! upper temperature limit according to DIN EN 15251 active cooled category II
*$UNIT_NAME Comfort
*$LAYER Main
*$POSITION 830 31
*$UNIT_NUMBER 3
*------------------------------------------------------------------------------
* EQUATIONS "Solar"
* 
EQUATIONS 17
Placeholder = 0
IT_H = [15,18]/3.6
IT_H_0_0 = IT_S157/(3.6*AREA_S157+0.00000001)
IB_H_0_0 = IB_S157/(3.6*AREA_S157+0.00000001)
ID_H_0_0 = ID_S157/(3.6*AREA_S157+0.00000001)
IT_W_90_90 = IT_S1119/(3.6*AREA_S1119+0.00000001)
IB_W_90_90 = IB_S1119/(3.6*AREA_S1119+0.00000001)
ID_W_90_90 = ID_S1119/(3.6*AREA_S1119+0.00000001)
IT_N_180_90 = IT_S1118/(3.6*AREA_S1118+0.00000001)
IB_N_180_90 = IB_S1118/(3.6*AREA_S1118+0.00000001)
ID_N_180_90 = ID_S1118/(3.6*AREA_S1118+0.00000001)
IT_E_270_90 = IT_S1117/(3.6*AREA_S1117+0.00000001)
IB_E_270_90 = IB_S1117/(3.6*AREA_S1117+0.00000001)
ID_E_270_90 = ID_S1117/(3.6*AREA_S1117+0.00000001)
IT_S_0_90 = IT_S1116/(3.6*AREA_S1116+0.00000001)
IB_S_0_90 = IB_S1116/(3.6*AREA_S1116+0.00000001)
ID_S_0_90 = ID_S1116/(3.6*AREA_S1116+0.00000001)

*$UNIT_NAME Solar
*$LAYER Main
*$POSITION 930 31
*$UNIT_NUMBER 4
*------------------------------------------------------------------------------
* EQUATIONS "UserDefinedOutputNames"
EQU 6
HumidityGain_KgPerHr = HUMGAIN395
HeatGainPart_Living = T_OUTPUT_8 / 2
HeatGain_Watt = T_OUTPUT_8 / 3.6 ! W
MAX_PMV = 0.5
MIN_PMV = -0.5
CLO_FACTOR = ge(PMV_C1, MIN_PMV ) * MIN(1 - ge(PMV_C1,MAX_PMV)*0.5, [800,1]) + lt(PMV_C1, MIN_PMV ) * 1

*$UNIT_NAME UserDefinedOutputNames
*$LAYER Main
*$POSITION 1030 31
*$UNIT_NUMBER 5
*------------------------------------------------------------------------------
* EQUATIONS "Zone"
* 
EQUATIONS 32
Ht_bui_Living            = 100.0 * 3.6 * (LT(Tamb_m24,20.0))    !ideal specific heating power
 Cl_bui_Living           = 1000 * 3.6 * (GT(Tamb_m24,12))    !ideal specific cooling power
Area_Living              = 7.6                                                              !area of airnode
Totarea_Living           = 0.0                                                       !total area of all spaces that have the same regime as this airnode
Vol_Living               = 19.0                                                               !volume of airnode
Tset_cl_Living	         = 20                                                             !set point temperature for cooling during occupied hours
Tset_ht_Living           = 20                                                             !set point temperature for heating during occupied hours
Tset_cl_red_Living       = (gt(0,0)-1)*Min(-0,0) + Tset_cl_Living             !night time reduction of cooling setpoint
Tset_ht_red_Living       = (gt(SCHED_AllDay,0)-1)*Max( 0.0,0) + Tset_ht_Living             !night time reduction of heating setpoint
Tair_set_cl_Living       = (0 * (Tair_Living+2*(Tset_cl_red_Living -0.2 - Top_Living)) + Not(0)*(Tset_cl_red_Living-0.2))  !resulting control temperature for ideal cooling
Tair_set_ht_Living       = (1 * (Tair_Living+2*(Tset_ht_red_Living +0.2 - Top_Living)) + Not(1)*(Tset_ht_red_Living+0.2))  !resulting control temperature for ideal heating
Tlair_Living             = [101,2]                                                          !airnode temperature during last simulation time step
Twb_Living               = TAIR_WB_Living                                                        !wet buld temperature in airnode
Tdp_Living               = TAIR_DP_Living                                                        !dew point temperature in airnode
Tearthd_Living           = TAMB + 0/100 * (Tsoil-Tamb)                             !earth duct outlet temperature
Tclo_Living              = 32                                                                    !surface temperature of the humans clothing
Abshuml_Living           = [101,6]                                                          !absolute humidity of airnode during last simulation time step
ACR_tot_Living           = ACR_inf_Living + ACR_ahu_hv_Living + ACR_ahu_mv_Living + ACR_sv1_Living + ACR_sv2_Living  !total air change in airnode
*ACR_tot_Living           = ACR_ahu_mv_Living + max(ACR_inf_Living,max(ACR_ahu_hv_Living,max(ACR_sv1_Living,ACR_sv2_Living)))  !total air change in airnode
ACR_CO2_Living           = abs(QINF_Living) / (3.6 * Vol_Living * 0.33 * abs(Tamb - TAIR_Living) + 0.0000000001)  !total air change in airnode depending to QINF
ACR_inf_Living           = max(0.5 * SCHED_AllDay, 0.5)                               !air change resulting from infiltration
Y_inf_Living             = gt(ACR_inf_Living, 0.5)                                          !signal that infiltration is active or not
X_Living                 = ABSHUM_Living * 1000                                                  !absolute humidity of airnode
Rh_Living                = RELHUM_Living                                                         !relative humidity of airnode
CO2l_Living              = [101,8]                                                          !CO2 level in airnode from last time step
CO2_ppers_Living         = 18.7                                                             !CO2 production per person in l/h
Gpers_Living             = CO2_ppers_Living * Area_Living / 7.6 * SCHED_AllDayOff * 1 / Vol_Living / 1000 * 1000000 !CO2 calculation part 1
Gcoup_Living             = 0
Gtot_Living              = Gpers_Living + Gcoup_Living
CO2_Living               = (CO2l_Living - CO2_amb - Gtot_Living / (ACR_tot_Living+0.0000001)) * exp(-ACR_tot_Living*STEP) + CO2_amb + Gtot_Living / (ACR_tot_Living+0.0000001)  !CO2 calculation equation
deltaCO2_Living          = CO2_Living - CO2_amb                                                  !CO difference of inside air to outside air
Klhours_Living           = [101,10]                                                         !kelvin hours stored from last time step
scheduleocc_Living       = SCHED_AllDayOff
*$UNIT_NAME Zone definitions
*$LAYER Main
*$POSITION 230 130
*$UNIT_NUMBER 120
*------------------------------------------------------------------------------
* EQUATIONS "Active Layer"
* 
EQUATIONS 9
Tsup_al1_Living      = 0
Tsurf_al1_Living     = 0
Tout_al1_Living      = 0
Tcl_on_al1_Living    = 2
Tcl_off_al1_Living   = 0
Tht_on_al1_Living    = - 0
Tht_off_al1_Living   = - 2 
Tnode_al1_Living     = 0
Area_al1_Living      = 9999999999
EQUATIONS 8
Tsup_al2_Living      = 0
Tsurf_al2_Living     = 0
Tout_al2_Living      = 0
Tcl_on_al2_Living    = 2
Tcl_off_al2_Living   = 0
Tht_on_al2_Living    = - 0
Tht_off_al2_Living   = - 2 
Tnode_al2_Living     = 0
*$UNIT_NAME Active Layer
*$LAYER Main
*$POSITION 230 180
*$UNIT_NUMBER 121
*------------------------------------------------------------------------------
* EQUATIONS "MechanicalVentilation"
*
EQUATIONS 10
ACR_ahu_mv_Living  = 0
ACR_ahu_hv_Living  = 0
Tin_hrc_Living     = 0
Tsup_mv_Living     = 0
Text_Living        = 0
Thrc_Living        = 0
mflow_sup_Living   = 0
Abshum_sup_mv_Living = 0
X_mv_Living        = 0
Rh_sup_mv_Living   = 0
*$UNIT_NAME AHU
*$LAYER Main
*$POSITION 230 230
*$UNIT_NUMBER 122
*------------------------------------------------------------------------------
* EQUATIONS "Stack Ventilation"
* 
EQUATIONS 11
sched_sv_Living = gt(0,0)                                                     !schedule to define stack ventilation 1 active
Hdifopen_Living = max(1 * sched_sv_Living,1 * not(sched_sv_Living))     !height difference of stack ventilation openings
Aopentop_Living = max(1 * sched_sv_Living,1 * not(sched_sv_Living))       !effective upper opening area
Aopenbot_Living = max(1 * sched_sv_Living,1 * not(sched_sv_Living))       !effective lower opening area
y_dfl_Living = GT(Tamb,12) * GT(Tamb_m24,12) * sched_sv_Living * max(not(0),[106,1])      !control signal stack ventilation 1 active
y_nfl_Living = GT(Tamb,1000) * GT(Tamb_m24,1000) * not(sched_sv_Living) * max(not(0),[106,1]) !control signal stack ventilation 2 active (during remaining times than stack ventilation 1)
ACR_sv_max_Living = max(5 * sched_sv_Living,5 * not(sched_sv_Living)) !maximum air change rate during times of stack ventilation 1 / 2
ACR_sv1_Living   = [104,1] * sched_sv_Living                                         !air change rate of stack ventilation 1
ACR_sv2_Living   = [104,1] * not(sched_sv_Living)                                    !air change rate of stack ventilation 2
MF_sv1_Living    = rhoAir * [104,2] * sched_sv_Living                                !mass flow rate of stack ventilation 1
MF_sv2_Living    = rhoAir * [104,2] * not(sched_sv_Living)                           !mass flow rate of stack ventilation 2
*$UNIT_NAME Stack Ventilation
*$LAYER Main
*$POSITION 230 280
*$UNIT_NUMBER 123
*------------------------------------------------------------------------------
* EQUATIONS "Shading"
* 
EQUATIONS 6 
Tshd_on_Living     = -20                            !temperature threshold above that the shading control is possible
Tshd_off_Living	   = TSHD_ON_Living - 2                     !temperature threshold below that no shading control is possible
Yshd_temp_Living   = [111,1]                           
SHD_active_Living	 = 0 * Yshd_temp_Living      
SHD_activeA_Living	 = 0 * Yshd_temp_Living
SHD_activeB_Living	 = 0 * Yshd_temp_Living

*$UNIT_NAME Shading
*$LAYER Main
*$POSITION 230 330
*$UNIT_NUMBER 124
*------------------------------------------------------------------------------
* EQUATIONS "DHW"
* 
EQUATIONS 4 
Tcw_Living       = 14                                            !cold water supply temperature
Thw_Living       = 45                                            !hot water temperature
Tdhw_diff_Living = Thw_Living - Tcw_Living                         !temperature difference cold to hot water
Mfdhw_Living     = 0 * 0 / 1 * 0   !mass flow rate of heated water
*$UNIT_NAME DHW
*$LAYER Main
*$POSITION 230 430
*$UNIT_NUMBER 126
*------------------------------------------------------------------------------
* EQUATIONS "Occupation Results"
* 
EQUATIONS 6
OCCUPATION_Living = gt(SCHED_AllDayOff,0)                               !schedule defining the time when people are inside the space to analyze e.g. temperatures during occupation
ATop_Living       = Top_Living * OCCUPATION_Living                 !operative temperature during occupation time
ATair_Living      = Tair_Living * OCCUPATION_Living                !air temperature during occupation time
Arh_Living        = rh_Living * OCCUPATION_Living                  !relative humidity during occupation time
dK_Living = gt(OCCUPATION_Living,0) * max(0,Top_Living - Tset_cl_Living) + gt(OCCUPATION_Living,0) * abs(min(0,Top_Living - Tset_ht_Living))
Khours_Living     = Klhours_Living + dK_Living * STEP              !kelvin hours
*$UNIT_NAME Occupation Results
*$LAYER Main
*$POSITION 230 480
*$UNIT_NUMBER 127
*------------------------------------------------------------------------------
* EQUATIONS "Zone Specific Power Inputs"
* 
EQUATIONS 4
Q_pers_kJ_Living    = ( 10.53 * (1 - lt(Tamb_m24,5.0 ) * 0.0)) * 3.6    !internal heat gain from persons
Q_comp_kJ_Living    = ( 9.21052631579 * (1 - lt(Tamb_m24,5.0 ) * 0.0)) * 3.6    !internal heat gain from equipment
Q_addon_KJ_Living   =((0+30.0+0 * (max(not(0), lt(Tamb_m24,12)))) * (1 - lt(Tamb_m24,5.0 ) * 0)) * 3.6                !internal heat gain from miscellaneous equipment
Q_light_kJ_Living  =  10 * 3.6                                                         !internal heat gain from artificial lighting
*$UNIT_NAME Specific Power Inputs
*$LAYER Main
*$POSITION 230 530
*$UNIT_NUMBER 128
*------------------------------------------------------------------------------
* EQUATIONS "Zone Specific Outputs"
* 
EQUATIONS 61
Q_people_Living = QGPEOPLE_Living / Area_Living / 3.6                            !people heat gain from building
Q_heat_Living       = -1 * MIN(0,QSENS_Living / 3.6) / Area_Living               !ideal heating from building
Q_cool_Living       = MAX(0,QSENS_Living / 3.6) / Area_Living                    !ideal cooling from building
Q_sen_Living        = QSENS_Living / 3.6 / Area_Living                           !combined ideal heating or cooling from building
Q_inf_Living        = QINF_Living / 3.6 / Area_Living                            !infiltration heat loss or gain compared to room air temperature
Q_vent_Living       = QVENT_Living / 3.6 / Area_Living                           !ventilation heat loss or gain compared to room air temperature
Q_conv_Living	      = QGCONV_Living / 3.6 / Area_Living - 0.5 * Q_thb_Living   !convective heat gains
Q_light_Living = QGLIGHT_Living / Area_Living / 3.6                              !artificial lighting gains
Q_equip_Living = QGEQUIP_Living / Area_Living / 3.6                              !equipment gains 
Q_misc_Living = QGMISC_Living / Area_Living / 3.6                                !miscellaneous gains
Q_thb_Living = QGTHB_Living / Area_Living / 3.6                                  !thermal bridge gains
Q_lat_Living        = QLATD_Living / 3.6 / Area_Living                           !combined ideal humidification or ideal dehumidification result
Q_lat_dh_Living     = MAX(Q_lat_Living,0)                                        !ideal dehumidification from building
Q_lat_hu_Living     = - MIN(Q_lat_Living,0)                                      !ideal humidification from building
Q_soltr_Living      = QSOLTR_Living / 3.6 / Area_Living                          !solar incoming radiation (not including reflected radiation through windows)
Q_surf_wall_Living  = -( QABSI_S1116 - QCOMI_S1116+QABSI_S1117 - QCOMI_S1117+QABSI_S1118 - QCOMI_S1118+QABSI_S1119 - QCOMI_S1119 ) / 3.6 / Area_Living                          !heat gain or loss by walls
Q_surf_win_Living   = -( 0 ) / 3.6 / Area_Living                           !heat gain or loss by windows
Q_surf_floor_Living  = -( QABSI_S158 - QCOMI_S158 ) / 3.6 / Area_Living                        !heat gain or loss by floors
Q_surf_ceiling_Living   = -( 0 ) / 3.6 / Area_Living                   !heat gain or loss by ceiling
Q_surf_roof_Living   = -( QABSI_S157 - QCOMI_S157 ) / 3.6 / Area_Living                         !heat gain or loss by roofs
Q_surf_Living       = Q_surf_wall_Living + Q_surf_win_Living + Q_surf_floor_Living + Q_surf_ceiling_Living + Q_surf_roof_Living !summed heat gain or loss
Q_surf_ext_Living = -( 0 + QABSI_S1117 - QCOMI_S1117 + QABSI_S1118 - QCOMI_S1118 + QABSI_S1119 - QCOMI_S1119 + QABSI_S157 - QCOMI_S157 ) / 3.6 / Area_Living                             !heat gain or loss through external surfaces
Q_solabs_wall_Living  = ( QSIAB_S1116+QSIAB_S1117+QSIAB_S1118+QSIAB_S1119 ) / 3.6 / Area_Living                       !absorpt solar radiation on walls
Q_solabs_win_Living   = ( 0 ) / 3.6 / Area_Living                        !absorpt solar radiation on windows
Q_solabs_floor_Living  = ( QSIAB_S158 ) / 3.6 / Area_Living                     !absorpt solar radiation on floors
Q_solabs_ceiling_Living   = ( 0 ) / 3.6 / Area_Living                !absorpt solar radiation on ceilings
Q_solabs_roof_Living   = ( QSIAB_S157 ) / 3.6 / Area_Living                      !absorpt solar radiation on roofs
Q_solabs_Living       = Q_solabs_wall_Living + Q_solabs_win_Living + Q_solabs_floor_Living + Q_solabs_ceiling_Living + Q_solabs_roof_Living !summed absorpt solar radiation
Q_coup_Living       = QCOUP_Living / 3.6 / Area_Living                           !heat gains or losses due to coupled air flows between airnodes
Q_solair_Living     = QSOLAIR_Living / 3.6 / Area_Living                         !fraction of solar radiation entering the space that is directly convective heating the space
Q_rad_Living        = QGRAD_Living / 3.6 / Area_Living - 0.5 * Q_thb_Living      !radiative heat gains
Q_intgain_Living    = Q_conv_Living + Q_rad_Living                               !total internal radiative and convective heat gain
Q_al_Living         = (0 + 0) / 3.6 / Area_Living                             !active layer heating or cooling demand
Q_al_cl_Living      = MAX(Q_al_Living,0)                                         !active layer cooling demand
Q_al_ht_Living      = - MIN(Q_al_Living,0)                                       !active layer heating demand
Q_al_el_Living      = abs(0.01*Q_al_Living)                                      !active layer electricity demand
Q_alsrf_Living      = (0 + 0) / 3.6 / Area_Living                              !active layer surface heat exchange
Q_addon_cl_Living      = MAX(0-QheatKJ_S1116,0) / 3.6 / Area_Living                      !add cooling demand
Q_addon_ht_Living      = - MIN(0-QheatKJ_S1116,0)  / 3.6 / Area_Living            !add heating demand
Q_dhw_Living        = ( Mfdhw_Living * 1.16667 * Tdhw_diff_Living) / Area_Living !domestic hot water heating demand
Q_ahu_sen_ht_Living = 0                                                  !air handling unit sensible heating demand to reach supply air temperature
Q_ahu_sen_cl_Living = 0                                                  !air handling unit sensible cooling demand to reach supply air temperature
Q_ahu_lat_hu_Living = 0                                                  !air handling unit latent humidification demand to reach supply air humidity level
Q_ahu_lat_dh_Living = 0                                                  !air handling unit latent dehumidification demand to reach supply air humidity level
Q_ahu_sen_dh_cl_Living = 0                                             !air handling unit sensible dehumidification demand to reach dew point
Q_ahu_dh_cl_Living = Q_ahu_lat_dh_Living + Q_ahu_sen_dh_cl_Living                !air handling unit total cooling demand for dehumidification
Q_ahu_sen_dh_ht_Living = 0                                             !air handling unit reheating demand after dehumidification  
Q_hrc_sen_cl_Living = 0                                                  !cooling by heat recovery
Q_hrc_sen_ht_Living = 0                                                  !heating by heat recovery
Q_earthd_ht_Living  = MAX(mflow_sup_Living * cpAir * (Tearthd_Living - Tamb), 0) / Area_Living / 3.6   ! W/m? heating by earth duct
Q_earthd_cl_Living  = -MIN(mflow_sup_Living * cpAir * (Tearthd_Living - Tamb), 0) / Area_Living / 3.6  ! W/m? cooling be earth duct  
Q_light_el_Living = QELLIGHT_Living / Area_Living / 3.6                          !artificial lighting electricity
Q_equip_el_Living = QELEQUIP_Living / Area_Living / 3.6                          !equipment electricity
Q_misc_el_Living = QELMISC_Living / Area_Living / 3.6                            !miscellaneous electricity
Q_heat_el_Living = QELHEAT_Living / Area_Living / 3.6                            !ideal heating electricity 
Q_cool_el_Living = QELCOOL_Living / Area_Living / 3.6                            !ideal cooling electricity
Q_vent_el_Living = QELVENT_Living / Area_Living / 3.6                            !mechanical ventilation electricity
Q_ahu_el_Living     = Q_vent_el_Living                                           !mechanical ventilation electricity
Q_tot_ht_Living     = Q_heat_Living + Q_lat_hu_Living + Q_al_ht_Living + Q_dhw_Living + Q_ahu_sen_ht_Living + Q_ahu_lat_hu_Living + Q_ahu_sen_dh_ht_Living + Q_addon_ht_Living  !total heating demand of airnode
Q_tot_cl_Living     = Q_cool_Living + Q_lat_dh_Living + Q_al_cl_Living + Q_ahu_sen_cl_Living + Q_ahu_dh_cl_Living + Q_addon_cl_Living                                          !total cooling demand of airnode
Q_tot_el_Living     = Q_light_el_Living + Q_equip_el_Living + Q_misc_el_Living + Q_ahu_el_Living + Q_al_el_Living + Q_heat_el_Living + Q_cool_el_Living     !total electricity demand of airnode
*$UNIT_NAME Specific Power
*$LAYER Main
*$POSITION 330 130
*$UNIT_NUMBER 129

*------------------------------------------------------------------------------
* EQUATIONS "Additional Power Demand in W"
* 
EQUATIONS 3
Q_ht_addon = 0
Q_cl_addon = 0
Q_el_addon = 0
*------------------------------------------------------------------------------
* EQUATIONS "Total Power"
* 
EQUATIONS 31
Q_heat          = (Q_heat_Living * Totarea_Living)/(Totarea+0.000001)                         !for description see airnode specific outputs
Q_inf           = (Q_inf_Living * Totarea_Living)/(Totarea+0.000001)                          !for description see airnode specific outputs
Q_vent          = (Q_vent_Living * Totarea_Living)/(Totarea+0.000001)                         !for description see airnode specific outputs
Q_intgain       = (Q_intgain_Living * Totarea_Living)/(Totarea+0.000001)                      !for description see airnode specific outputs
Q_conv          = (Q_conv_Living * Totarea_Living)/(Totarea+0.000001)                         !for description see airnode specific outputs
Q_rad           = (Q_rad_Living * Totarea_Living)/(Totarea+0.000001)                          !for description see airnode specific outputs
Q_soltr         = (Q_soltr_Living * Totarea_Living)/(Totarea+0.000001)                        !for description see airnode specific outputs
Q_cool          = (Q_cool_Living * Totarea_Living)/(Totarea+0.000001)                         !for description see airnode specific outputs
Q_lat_dh        = (Q_lat_dh_Living * Totarea_Living)/(Totarea+0.000001)                       !for description see airnode specific outputs
Q_lat_hu        = (Q_lat_hu_Living * Totarea_Living)/(Totarea+0.000001)                       !for description see airnode specific outputs
Q_people = (Q_people_Living * Totarea_Living)/(Totarea+0.000001)                              !for description see airnode specific outputs
Q_light_el = (Q_light_Living * Totarea_Living)/(Totarea+0.000001)                             !for description see airnode specific outputs
Q_equip_el = (Q_equip_Living * Totarea_Living)/(Totarea+0.000001)                             !for description see airnode specific outputs
Q_misc_el = (Q_misc_Living * Totarea_Living)/(Totarea+0.000001)                               !for description see airnode specific outputs
Q_ahu_sen_ht    = (Q_ahu_sen_ht_Living * Totarea_Living)/(Totarea+0.000001)                   !for description see airnode specific outputs
Q_ahu_sen_cl    = (Q_ahu_sen_cl_Living * Totarea_Living)/(Totarea+0.000001)                   !for description see airnode specific outputs
Q_ahu_lat_hu    = (Q_ahu_lat_hu_Living * Totarea_Living)/(Totarea+0.000001)                   !for description see airnode specific outputs 
Q_ahu_lat_dh    = (Q_ahu_lat_dh_Living * Totarea_Living)/(Totarea+0.000001)                   !for description see airnode specific outputs
Q_ahu_sen_dh_ht = (Q_ahu_sen_dh_ht_Living * Totarea_Living)/(Totarea+0.000001)                !for description see airnode specific outputs